# generated using pymatgen
data_B4CN3
_symmetry_space_group_name_H-M   'P 1'
_cell_length_a   2.52166224
_cell_length_b   2.55568337
_cell_length_c   7.86667061
_cell_angle_alpha   89.84703064
_cell_angle_beta   89.96276855
_cell_angle_gamma   89.91520691
_symmetry_Int_Tables_number   1
_chemical_formula_structural   B4CN3
_chemical_formula_sum   'B4 C1 N3'
_cell_volume   50.69706460
_cell_formula_units_Z   1
loop_
 _symmetry_equiv_pos_site_id
 _symmetry_equiv_pos_as_xyz
  1  'x, y, z'
loop_
 _atom_site_type_symbol
 _atom_site_label
 _atom_site_symmetry_multiplicity
 _atom_site_fract_x
 _atom_site_fract_y
 _atom_site_fract_z
 _atom_site_occupancy
  B  B0  1  0.94610417  0.24636614  0.62713301  1
  N  N1  1  0.94639724  0.74592930  0.75473213  1
  C  C2  1  0.44630826  0.24576423  0.50670147  1
  B  B3  1  0.44597095  0.74510461  0.38564518  1
  B  B4  1  0.94603348  0.74570936  0.23875247  1
  N  N5  1  0.94617093  0.24551536  0.12269980  1
  N  N6  1  0.44591895  0.74502450  0.86521578  1
  B  B7  1  0.44574568  0.24492049  0.99687636  1
