data_image0
_chemical_formula_structural       Eu3CN9
_chemical_formula_sum              "Eu3 C1 N9"
_cell_length_a       5.1684
_cell_length_b       5.77031
_cell_length_c       9.59853
_cell_angle_alpha    122.964
_cell_angle_beta     78.213
_cell_angle_gamma    84.2252

_space_group_name_H-M_alt    "P 1"
_space_group_IT_number       1

loop_
  _space_group_symop_operation_xyz
  'x, y, z'

loop_
  _atom_site_type_symbol
  _atom_site_label
  _atom_site_symmetry_multiplicity
  _atom_site_fract_x
  _atom_site_fract_y
  _atom_site_fract_z
  _atom_site_occupancy
  Eu  Eu1       1.0  0.13405  0.94452  0.41632  1.0000
  Eu  Eu2       1.0  0.27730  0.09406  0.11984  1.0000
  Eu  Eu3       1.0  0.65254  0.51821  0.47330  1.0000
  C   C1        1.0  0.74546  0.82614  0.24290  1.0000
  N   N1        1.0  0.74045  0.13601  0.94751  1.0000
  N   N2        1.0  0.61161  0.15889  0.87270  1.0000
  N   N3        1.0  0.09616  0.70925  0.58428  1.0000
  N   N4        1.0  0.21067  0.61708  0.84738  1.0000
  N   N5        1.0  0.52297  0.82612  0.19037  1.0000
  N   N6        1.0  0.86932  0.04867  0.27645  1.0000
  N   N7        1.0  0.10493  0.44108  0.79060  1.0000
  N   N8        1.0  0.85848  0.64078  0.27550  1.0000
  N   N9        1.0  0.15750  0.45177  0.47442  1.0000
