data_image0
_chemical_formula_structural       B3CN5
_chemical_formula_sum              "B3 C1 N5"
_cell_length_a       2.7332
_cell_length_b       11.401
_cell_length_c       13.857
_cell_angle_alpha    160.081
_cell_angle_beta     92.6481
_cell_angle_gamma    100.269

_space_group_name_H-M_alt    "P 1"
_space_group_IT_number       1

loop_
  _space_group_symop_operation_xyz
  'x, y, z'

loop_
  _atom_site_type_symbol
  _atom_site_label
  _atom_site_symmetry_multiplicity
  _atom_site_fract_x
  _atom_site_fract_y
  _atom_site_fract_z
  _atom_site_occupancy
  B   B1        1.0  0.25989  0.59341  0.47426  1.0000
  B   B2        1.0  0.27217  0.09786  0.97844  1.0000
  B   B3        1.0  0.51667  0.23603  0.89481  1.0000
  C   C1        1.0  0.14258  0.38536  0.98695  1.0000
  N   N1        1.0  0.92631  0.25415  0.13484  1.0000
  N   N2        1.0  0.68562  0.39597  0.66405  1.0000
  N   N3        1.0  0.93695  0.76496  0.64173  1.0000
  N   N4        1.0  0.55494  0.27728  0.49503  1.0000
  N   N5        1.0  0.26275  0.26794  0.82379  1.0000
