data_image0
_chemical_formula_structural       Ti2ReCN7
_chemical_formula_sum              "Ti2 Re1 C1 N7"
_cell_length_a       5.79339
_cell_length_b       6.47759
_cell_length_c       6.48879
_cell_angle_alpha    124.14
_cell_angle_beta     95.5685
_cell_angle_gamma    58.6779

_space_group_name_H-M_alt    "P 1"
_space_group_IT_number       1

loop_
  _space_group_symop_operation_xyz
  'x, y, z'

loop_
  _atom_site_type_symbol
  _atom_site_label
  _atom_site_symmetry_multiplicity
  _atom_site_fract_x
  _atom_site_fract_y
  _atom_site_fract_z
  _atom_site_occupancy
  Ti  Ti1       1.0  0.91791  0.96991  0.36165  1.0000
  Ti  Ti2       1.0  0.36857  0.98603  0.23246  1.0000
  Re  Re1       1.0  0.73581  0.40120  0.08681  1.0000
  C   C1        1.0  0.77530  0.72388  0.20976  1.0000
  N   N1        1.0  0.51332  0.87166  0.86145  1.0000
  N   N2        1.0  0.32947  0.69676  0.22177  1.0000
  N   N3        1.0  0.61173  0.78023  0.66427  1.0000
  N   N4        1.0  0.32789  0.43736  0.53622  1.0000
  N   N5        1.0  0.21732  0.40481  0.64110  1.0000
  N   N6        1.0  0.83295  0.19840  0.73927  1.0000
  N   N7        1.0  0.94168  0.13741  0.18780  1.0000
