data_image0
_chemical_formula_structural       Eu2Re2N9
_chemical_formula_sum              "Eu2 Re2 N9"
_cell_length_a       3.63067
_cell_length_b       5.9238
_cell_length_c       9.21688
_cell_angle_alpha    101.125
_cell_angle_beta     96.7226
_cell_angle_gamma    83.1829

_space_group_name_H-M_alt    "P 1"
_space_group_IT_number       1

loop_
  _space_group_symop_operation_xyz
  'x, y, z'

loop_
  _atom_site_type_symbol
  _atom_site_label
  _atom_site_symmetry_multiplicity
  _atom_site_fract_x
  _atom_site_fract_y
  _atom_site_fract_z
  _atom_site_occupancy
  Eu  Eu1       1.0  0.97608  0.58596  0.40779  1.0000
  Eu  Eu2       1.0  0.84813  0.59868  0.79437  1.0000
  Re  Re1       1.0  0.42081  0.09976  0.76561  1.0000
  Re  Re2       1.0  0.40396  0.10634  0.49430  1.0000
  N   N1        1.0  0.96194  0.01692  0.79168  1.0000
  N   N2        1.0  0.43394  0.46953  0.20895  1.0000
  N   N3        1.0  0.33934  0.36234  0.64903  1.0000
  N   N4        1.0  0.44291  0.39611  0.94543  1.0000
  N   N5        1.0  0.88734  0.15383  0.42752  1.0000
  N   N6        1.0  0.82962  0.86906  0.17095  1.0000
  N   N7        1.0  0.44118  0.43222  0.07876  1.0000
  N   N8        1.0  0.48243  0.83456  0.57363  1.0000
  N   N9        1.0  0.86356  0.98676  0.09268  1.0000
