data_image0
_chemical_formula_structural       Ti2Re2CN7
_chemical_formula_sum              "Ti2 Re2 C1 N7"
_cell_length_a       5.75722
_cell_length_b       5.41383
_cell_length_c       7.09136
_cell_angle_alpha    86.7471
_cell_angle_beta     58.9431
_cell_angle_gamma    72.4588

_space_group_name_H-M_alt    "P 1"
_space_group_IT_number       1

loop_
  _space_group_symop_operation_xyz
  'x, y, z'

loop_
  _atom_site_type_symbol
  _atom_site_label
  _atom_site_symmetry_multiplicity
  _atom_site_fract_x
  _atom_site_fract_y
  _atom_site_fract_z
  _atom_site_occupancy
  Ti  Ti1       1.0  0.39467  0.66124  0.40600  1.0000
  Ti  Ti2       1.0  0.90038  0.72692  0.40934  1.0000
  Re  Re1       1.0  0.96303  0.20906  0.50607  1.0000
  Re  Re2       1.0  0.50892  0.07005  0.12615  1.0000
  C   C1        1.0  0.24772  0.40675  0.33245  1.0000
  N   N1        1.0  0.19618  0.30235  0.94376  1.0000
  N   N2        1.0  0.71290  0.85705  0.23950  1.0000
  N   N3        1.0  0.67382  0.45587  0.49269  1.0000
  N   N4        1.0  0.20437  0.92223  0.24851  1.0000
  N   N5        1.0  0.80260  0.04300  0.80800  1.0000
  N   N6        1.0  0.97756  0.85727  0.64236  1.0000
  N   N7        1.0  0.11957  0.39323  0.83201  1.0000
