data_image0
_chemical_formula_structural       V2Ru4
_chemical_formula_sum              "V2 Ru4"
_cell_length_a       4.43495
_cell_length_b       4.83407
_cell_length_c       4.83985
_cell_angle_alpha    54.5919
_cell_angle_beta     89.8251
_cell_angle_gamma    90.1764

_space_group_name_H-M_alt    "P 1"
_space_group_IT_number       1

loop_
  _space_group_symop_operation_xyz
  'x, y, z'

loop_
  _atom_site_type_symbol
  _atom_site_label
  _atom_site_symmetry_multiplicity
  _atom_site_fract_x
  _atom_site_fract_y
  _atom_site_fract_z
  _atom_site_occupancy
  V   V1        1.0  0.91640  0.52105  0.95766  1.0000
  V   V2        1.0  0.41650  0.02178  0.45667  1.0000
  Ru  Ru1       1.0  0.91645  0.86657  0.29661  1.0000
  Ru  Ru2       1.0  0.41643  0.36674  0.79623  1.0000
  Ru  Ru3       1.0  0.91639  0.17976  0.61567  1.0000
  Ru  Ru4       1.0  0.41639  0.67977  0.11547  1.0000
