data_image0
_chemical_formula_structural       B5N3
_chemical_formula_sum              "B5 N3"
_cell_length_a       2.45559
_cell_length_b       10.9588
_cell_length_c       20.1541
_cell_angle_alpha    171.481
_cell_angle_beta     88.2542
_cell_angle_gamma    93.2312

_space_group_name_H-M_alt    "P 1"
_space_group_IT_number       1

loop_
  _space_group_symop_operation_xyz
  'x, y, z'

loop_
  _atom_site_type_symbol
  _atom_site_label
  _atom_site_symmetry_multiplicity
  _atom_site_fract_x
  _atom_site_fract_y
  _atom_site_fract_z
  _atom_site_occupancy
  B   B1        1.0  0.43631  0.83672  0.59231  1.0000
  B   B2        1.0  0.94581  0.23755  0.99660  1.0000
  B   B3        1.0  0.44609  0.01285  0.76785  1.0000
  B   B4        1.0  0.95603  0.72019  0.47513  1.0000
  B   B5        1.0  0.94465  0.54085  0.29682  1.0000
  N   N1        1.0  0.44412  0.45349  0.21640  1.0000
  N   N2        1.0  0.44417  0.30274  0.06590  1.0000
  N   N3        1.0  0.94613  0.09500  0.84837  1.0000
