data_image0
_chemical_formula_structural       Np2TiC4N6
_chemical_formula_sum              "Np2 Ti1 C4 N6"
_cell_length_a       3.55425
_cell_length_b       9.97585
_cell_length_c       9.65869
_cell_angle_alpha    92.0301
_cell_angle_beta     42.0619
_cell_angle_gamma    109.093

_space_group_name_H-M_alt    "P 1"
_space_group_IT_number       1

loop_
  _space_group_symop_operation_xyz
  'x, y, z'

loop_
  _atom_site_type_symbol
  _atom_site_label
  _atom_site_symmetry_multiplicity
  _atom_site_fract_x
  _atom_site_fract_y
  _atom_site_fract_z
  _atom_site_occupancy
  Np  Np1       1.0  0.05374  0.20394  0.79203  1.0000
  Np  Np2       1.0  0.38955  0.13810  0.34275  1.0000
  Ti  Ti1       1.0  0.24794  0.82570  0.51757  1.0000
  C   C1        1.0  0.84140  0.58913  0.61224  1.0000
  C   C2        1.0  0.70379  0.95762  0.75485  1.0000
  C   C3        1.0  0.35759  0.00746  0.77904  1.0000
  C   C4        1.0  0.00673  0.91661  0.76025  1.0000
  N   N1        1.0  0.45767  0.63624  0.08334  1.0000
  N   N2        1.0  0.45452  0.56281  0.16854  1.0000
  N   N3        1.0  0.08639  0.91228  0.38919  1.0000
  N   N4        1.0  0.54340  0.45744  0.67217  1.0000
  N   N5        1.0  0.80450  0.23194  0.42846  1.0000
  N   N6        1.0  0.17133  0.20815  0.98918  1.0000
