data_image0
_chemical_formula_structural       Np3TiC2N7
_chemical_formula_sum              "Np3 Ti1 C2 N7"
_cell_length_a       3.64144
_cell_length_b       6.84927
_cell_length_c       8.30732
_cell_angle_alpha    65.9157
_cell_angle_beta     84.7681
_cell_angle_gamma    77.1886

_space_group_name_H-M_alt    "P 1"
_space_group_IT_number       1

loop_
  _space_group_symop_operation_xyz
  'x, y, z'

loop_
  _atom_site_type_symbol
  _atom_site_label
  _atom_site_symmetry_multiplicity
  _atom_site_fract_x
  _atom_site_fract_y
  _atom_site_fract_z
  _atom_site_occupancy
  Np  Np1       1.0  0.30976  0.55367  0.66189  1.0000
  Np  Np2       1.0  0.25276  0.06977  0.16743  1.0000
  Np  Np3       1.0  0.96510  0.53644  0.27649  1.0000
  Ti  Ti1       1.0  0.62265  0.08147  0.56722  1.0000
  C   C1        1.0  0.81460  0.32247  0.66535  1.0000
  C   C2        1.0  0.11102  0.21059  0.61205  1.0000
  N   N1        1.0  0.56134  0.33098  0.32218  1.0000
  N   N2        1.0  0.27682  0.39395  0.93654  1.0000
  N   N3        1.0  0.66485  0.13867  0.31231  1.0000
  N   N4        1.0  0.82552  0.91387  0.11539  1.0000
  N   N5        1.0  0.72519  0.75368  0.66131  1.0000
  N   N6        1.0  0.33939  0.68511  0.38782  1.0000
  N   N7        1.0  0.08570  0.42314  0.06894  1.0000
