data_image0
_chemical_formula_structural       B4CN4
_chemical_formula_sum              "B4 C1 N4"
_cell_length_a       2.56845
_cell_length_b       6.38583
_cell_length_c       12.2154
_cell_angle_alpha    131.864
_cell_angle_beta     112.861
_cell_angle_gamma    49.622

_space_group_name_H-M_alt    "P 1"
_space_group_IT_number       1

loop_
  _space_group_symop_operation_xyz
  'x, y, z'

loop_
  _atom_site_type_symbol
  _atom_site_label
  _atom_site_symmetry_multiplicity
  _atom_site_fract_x
  _atom_site_fract_y
  _atom_site_fract_z
  _atom_site_occupancy
  B   B1        1.0  0.78126  0.35018  0.48731  1.0000
  B   B2        1.0  0.28508  0.86011  0.06246  1.0000
  B   B3        1.0  0.17574  0.68829  0.72390  1.0000
  B   B4        1.0  0.82302  0.11932  0.30682  1.0000
  C   C1        1.0  0.32246  0.02411  0.22350  1.0000
  N   N1        1.0  0.59775  0.83015  0.80247  1.0000
  N   N2        1.0  0.74576  0.79199  0.98178  1.0000
  N   N3        1.0  0.78555  0.63396  0.83786  1.0000
  N   N4        1.0  0.25468  0.45665  0.56598  1.0000
