data_image0
_chemical_formula_structural       Eu2Re3CN7
_chemical_formula_sum              "Eu2 Re3 C1 N7"
_cell_length_a       6.80642
_cell_length_b       4.45643
_cell_length_c       7.23067
_cell_angle_alpha    90.5831
_cell_angle_beta     70.253
_cell_angle_gamma    76.3756

_space_group_name_H-M_alt    "P 1"
_space_group_IT_number       1

loop_
  _space_group_symop_operation_xyz
  'x, y, z'

loop_
  _atom_site_type_symbol
  _atom_site_label
  _atom_site_symmetry_multiplicity
  _atom_site_fract_x
  _atom_site_fract_y
  _atom_site_fract_z
  _atom_site_occupancy
  Eu  Eu1       1.0  0.91379  0.79190  0.63887  1.0000
  Eu  Eu2       1.0  0.77617  0.54921  0.17655  1.0000
  Re  Re1       1.0  0.18519  0.13480  0.25993  1.0000
  Re  Re2       1.0  0.32336  0.50464  0.80098  1.0000
  Re  Re3       1.0  0.41630  0.15679  0.50601  1.0000
  C   C1        1.0  0.60689  0.41736  0.82264  1.0000
  N   N1        1.0  0.91675  0.06027  0.31790  1.0000
  N   N2        1.0  0.77478  0.35408  0.85467  1.0000
  N   N3        1.0  0.29098  0.81965  0.59854  1.0000
  N   N4        1.0  0.25930  0.47705  0.38082  1.0000
  N   N5        1.0  0.71219  0.08728  0.38094  1.0000
  N   N6        1.0  0.19301  0.32828  0.02755  1.0000
  N   N7        1.0  0.30507  0.76066  0.39783  1.0000
