data_image0
_chemical_formula_structural       Np3C4N6
_chemical_formula_sum              "Np3 C4 N6"
_cell_length_a       6.41426
_cell_length_b       10.4366
_cell_length_c       9.39529
_cell_angle_alpha    39.8502
_cell_angle_beta     118.983
_cell_angle_gamma    136.04

_space_group_name_H-M_alt    "P 1"
_space_group_IT_number       1

loop_
  _space_group_symop_operation_xyz
  'x, y, z'

loop_
  _atom_site_type_symbol
  _atom_site_label
  _atom_site_symmetry_multiplicity
  _atom_site_fract_x
  _atom_site_fract_y
  _atom_site_fract_z
  _atom_site_occupancy
  Np  Np1       1.0  0.97017  0.21278  0.51036  1.0000
  Np  Np2       1.0  0.49746  0.21137  0.87048  1.0000
  Np  Np3       1.0  0.60343  0.74875  0.45179  1.0000
  C   C1        1.0  0.73625  0.50944  0.24851  1.0000
  C   C2        1.0  0.15086  0.47932  0.66470  1.0000
  C   C3        1.0  0.80694  0.73636  0.06471  1.0000
  C   C4        1.0  0.91539  0.96286  0.86357  1.0000
  N   N1        1.0  0.43810  0.88856  0.15732  1.0000
  N   N2        1.0  0.70357  0.53696  0.76131  1.0000
  N   N3        1.0  0.40842  0.42709  0.51677  1.0000
  N   N4        1.0  0.93148  0.38723  0.74312  1.0000
  N   N5        1.0  0.69100  0.30576  0.41027  1.0000
  N   N6        1.0  0.85618  0.05338  0.42640  1.0000
