data_image0
_chemical_formula_structural       Ti2ReN6
_chemical_formula_sum              "Ti2 Re1 N6"
_cell_length_a       7.87086
_cell_length_b       5.51183
_cell_length_c       9.94509
_cell_angle_alpha    62.3601
_cell_angle_beta     36.9079
_cell_angle_gamma    35.098

_space_group_name_H-M_alt    "P 1"
_space_group_IT_number       1

loop_
  _space_group_symop_operation_xyz
  'x, y, z'

loop_
  _atom_site_type_symbol
  _atom_site_label
  _atom_site_symmetry_multiplicity
  _atom_site_fract_x
  _atom_site_fract_y
  _atom_site_fract_z
  _atom_site_occupancy
  Ti  Ti1       1.0  0.09831  0.28655  0.30795  1.0000
  Ti  Ti2       1.0  0.79390  0.40365  0.80173  1.0000
  Re  Re1       1.0  0.82934  0.22058  0.08322  1.0000
  N   N1        1.0  0.49366  0.72778  0.44115  1.0000
  N   N2        1.0  0.58856  0.74852  0.00132  1.0000
  N   N3        1.0  0.17474  0.63507  0.12942  1.0000
  N   N4        1.0  0.50819  0.72873  0.71218  1.0000
  N   N5        1.0  0.48312  0.30839  0.12062  1.0000
  N   N6        1.0  0.54729  0.62083  0.31255  1.0000
