data_image0
_chemical_formula_structural       Eu2ReCN9
_chemical_formula_sum              "Eu2 Re1 C1 N9"
_cell_length_a       4.95386
_cell_length_b       5.59026
_cell_length_c       9.35799
_cell_angle_alpha    108.332
_cell_angle_beta     73.6208
_cell_angle_gamma    88.7683

_space_group_name_H-M_alt    "P 1"
_space_group_IT_number       1

loop_
  _space_group_symop_operation_xyz
  'x, y, z'

loop_
  _atom_site_type_symbol
  _atom_site_label
  _atom_site_symmetry_multiplicity
  _atom_site_fract_x
  _atom_site_fract_y
  _atom_site_fract_z
  _atom_site_occupancy
  Eu  Eu1       1.0  0.46212  0.84935  0.38755  1.0000
  Eu  Eu2       1.0  0.52137  0.99130  0.98973  1.0000
  Re  Re1       1.0  0.02578  0.40814  0.42759  1.0000
  C   C1        1.0  0.53767  0.55499  0.11176  1.0000
  N   N1        1.0  0.93940  0.63452  0.34806  1.0000
  N   N2        1.0  0.66820  0.15043  0.64043  1.0000
  N   N3        1.0  0.62633  0.01329  0.71303  1.0000
  N   N4        1.0  0.14987  0.72398  0.72789  1.0000
  N   N5        1.0  0.19864  0.62254  0.58837  1.0000
  N   N6        1.0  0.26902  0.15570  0.27550  1.0000
  N   N7        1.0  0.09602  0.83214  0.86415  1.0000
  N   N8        1.0  0.69719  0.27806  0.55644  1.0000
  N   N9        1.0  0.58854  0.48022  0.97208  1.0000
