data_image0
_chemical_formula_structural       B5CN2
_chemical_formula_sum              "B5 C1 N2"
_cell_length_a       2.53434
_cell_length_b       2.55106
_cell_length_c       8.14005
_cell_angle_alpha    90.0002
_cell_angle_beta     90.0004
_cell_angle_gamma    90

_space_group_name_H-M_alt    "P 1"
_space_group_IT_number       1

loop_
  _space_group_symop_operation_xyz
  'x, y, z'

loop_
  _atom_site_type_symbol
  _atom_site_label
  _atom_site_symmetry_multiplicity
  _atom_site_fract_x
  _atom_site_fract_y
  _atom_site_fract_z
  _atom_site_occupancy
  B   B1        1.0  0.83244  0.94232  0.85800  1.0000
  B   B2        1.0  0.83244  0.44233  0.69215  1.0000
  B   B3        1.0  0.33245  0.44232  0.07819  1.0000
  B   B4        1.0  0.83245  0.94233  0.31142  1.0000
  B   B5        1.0  0.33243  0.94233  0.47427  1.0000
  C   C1        1.0  0.83245  0.44233  0.21271  1.0000
  N   N1        1.0  0.33244  0.94232  0.96505  1.0000
  N   N2        1.0  0.33243  0.44233  0.58449  1.0000
