data_image0
_chemical_formula_structural       B4CN2
_chemical_formula_sum              "B4 C1 N2"
_cell_length_a       2.51537
_cell_length_b       3.71762
_cell_length_c       7.04776
_cell_angle_alpha    93.7261
_cell_angle_beta     90.0065
_cell_angle_gamma    90.004

_space_group_name_H-M_alt    "P 1"
_space_group_IT_number       1

loop_
  _space_group_symop_operation_xyz
  'x, y, z'

loop_
  _atom_site_type_symbol
  _atom_site_label
  _atom_site_symmetry_multiplicity
  _atom_site_fract_x
  _atom_site_fract_y
  _atom_site_fract_z
  _atom_site_occupancy
  B   B1        1.0  0.74910  0.43343  0.14975  1.0000
  B   B2        1.0  0.24898  0.97644  0.63830  1.0000
  B   B3        1.0  0.74909  0.22180  0.92566  1.0000
  B   B4        1.0  0.24916  0.75663  0.42942  1.0000
  C   C1        1.0  0.74902  0.64707  0.33009  1.0000
  N   N1        1.0  0.24899  0.30441  0.03588  1.0000
  N   N2        1.0  0.74917  0.07093  0.73458  1.0000
