data_image0
_chemical_formula_structural       B5C2N2
_chemical_formula_sum              "B5 C2 N2"
_cell_length_a       2.61741
_cell_length_b       3.78102
_cell_length_c       8.26865
_cell_angle_alpha    107.888
_cell_angle_beta     92.86
_cell_angle_gamma    87.0282

_space_group_name_H-M_alt    "P 1"
_space_group_IT_number       1

loop_
  _space_group_symop_operation_xyz
  'x, y, z'

loop_
  _atom_site_type_symbol
  _atom_site_label
  _atom_site_symmetry_multiplicity
  _atom_site_fract_x
  _atom_site_fract_y
  _atom_site_fract_z
  _atom_site_occupancy
  B   B1        1.0  0.57016  0.95975  0.40489  1.0000
  B   B2        1.0  0.58437  0.30229  0.58351  1.0000
  B   B3        1.0  0.06127  0.53558  0.15827  1.0000
  B   B4        1.0  0.08418  0.69881  0.83490  1.0000
  B   B5        1.0  0.56212  0.28084  0.04300  1.0000
  C   C1        1.0  0.79550  0.59436  0.99292  1.0000
  C   C2        1.0  0.58177  0.88431  0.92544  1.0000
  N   N1        1.0  0.08784  0.44225  0.66280  1.0000
  N   N2        1.0  0.07009  0.80862  0.32884  1.0000
