data_image0
_chemical_formula_structural       Np3TiC4N5
_chemical_formula_sum              "Np3 Ti1 C4 N5"
_cell_length_a       3.74307
_cell_length_b       7.62239
_cell_length_c       7.23386
_cell_angle_alpha    61.1317
_cell_angle_beta     73.6724
_cell_angle_gamma    100.971

_space_group_name_H-M_alt    "P 1"
_space_group_IT_number       1

loop_
  _space_group_symop_operation_xyz
  'x, y, z'

loop_
  _atom_site_type_symbol
  _atom_site_label
  _atom_site_symmetry_multiplicity
  _atom_site_fract_x
  _atom_site_fract_y
  _atom_site_fract_z
  _atom_site_occupancy
  Np  Np1       1.0  0.86627  0.30252  0.88429  1.0000
  Np  Np2       1.0  0.01723  0.80321  0.35816  1.0000
  Np  Np3       1.0  0.09846  0.30327  0.32534  1.0000
  Ti  Ti1       1.0  0.38781  0.79249  0.76715  1.0000
  C   C1        1.0  0.03489  0.96045  0.58589  1.0000
  C   C2        1.0  0.84244  0.49016  0.06055  1.0000
  C   C3        1.0  0.71024  0.64374  0.05205  1.0000
  C   C4        1.0  0.55585  0.78897  0.05766  1.0000
  N   N1        1.0  0.42907  0.07944  0.48005  1.0000
  N   N2        1.0  0.21408  0.19264  0.09924  1.0000
  N   N3        1.0  0.89960  0.42262  0.52715  1.0000
  N   N4        1.0  0.66782  0.93155  0.10916  1.0000
  N   N5        1.0  0.37103  0.64880  0.61210  1.0000
