data_image0
_chemical_formula_structural       TiRe2N6
_chemical_formula_sum              "Ti1 Re2 N6"
_cell_length_a       8.37976
_cell_length_b       8.30232
_cell_length_c       5.03821
_cell_angle_alpha    65.3393
_cell_angle_beta     102.117
_cell_angle_gamma    159.713

_space_group_name_H-M_alt    "P 1"
_space_group_IT_number       1

loop_
  _space_group_symop_operation_xyz
  'x, y, z'

loop_
  _atom_site_type_symbol
  _atom_site_label
  _atom_site_symmetry_multiplicity
  _atom_site_fract_x
  _atom_site_fract_y
  _atom_site_fract_z
  _atom_site_occupancy
  Ti  Ti1       1.0  0.19342  0.85423  0.82486  1.0000
  Re  Re1       1.0  0.99187  0.30942  0.68809  1.0000
  Re  Re2       1.0  0.25070  0.28809  0.54412  1.0000
  N   N1        1.0  0.17291  0.54672  0.98631  1.0000
  N   N2        1.0  0.67672  0.54679  0.70727  1.0000
  N   N3        1.0  0.77232  0.84825  0.01294  1.0000
  N   N4        1.0  0.32353  0.89575  0.24604  1.0000
  N   N5        1.0  0.85659  0.11656  0.35322  1.0000
  N   N6        1.0  0.05370  0.68648  0.49205  1.0000
