data_image0
_chemical_formula_structural       Np3TiC3N6
_chemical_formula_sum              "Np3 Ti1 C3 N6"
_cell_length_a       3.65975
_cell_length_b       6.662
_cell_length_c       7.58377
_cell_angle_alpha    76.868
_cell_angle_beta     77.0458
_cell_angle_gamma    88.31

_space_group_name_H-M_alt    "P 1"
_space_group_IT_number       1

loop_
  _space_group_symop_operation_xyz
  'x, y, z'

loop_
  _atom_site_type_symbol
  _atom_site_label
  _atom_site_symmetry_multiplicity
  _atom_site_fract_x
  _atom_site_fract_y
  _atom_site_fract_z
  _atom_site_occupancy
  Np  Np1       1.0  0.31606  0.98284  0.19387  1.0000
  Np  Np2       1.0  0.72972  0.49581  0.15901  1.0000
  Np  Np3       1.0  0.66552  0.03622  0.60835  1.0000
  Ti  Ti1       1.0  0.95946  0.56565  0.52726  1.0000
  C   C1        1.0  0.47772  0.73340  0.54150  1.0000
  C   C2        1.0  0.45329  0.36874  0.58268  1.0000
  C   C3        1.0  0.16615  0.85164  0.56747  1.0000
  N   N1        1.0  0.55888  0.96203  0.89958  1.0000
  N   N2        1.0  0.35387  0.35492  0.08179  1.0000
  N   N3        1.0  0.76426  0.11898  0.31447  1.0000
  N   N4        1.0  0.15552  0.25319  0.62381  1.0000
  N   N5        1.0  0.71751  0.82310  0.01404  1.0000
  N   N6        1.0  0.11404  0.63265  0.26429  1.0000
