data_image0
_chemical_formula_structural       Eu2ReN10
_chemical_formula_sum              "Eu2 Re1 N10"
_cell_length_a       3.69135
_cell_length_b       5.29651
_cell_length_c       10.5569
_cell_angle_alpha    90.615
_cell_angle_beta     101.889
_cell_angle_gamma    89.9299

_space_group_name_H-M_alt    "P 1"
_space_group_IT_number       1

loop_
  _space_group_symop_operation_xyz
  'x, y, z'

loop_
  _atom_site_type_symbol
  _atom_site_label
  _atom_site_symmetry_multiplicity
  _atom_site_fract_x
  _atom_site_fract_y
  _atom_site_fract_z
  _atom_site_occupancy
  Eu  Eu1       1.0  0.26804  0.76144  0.94312  1.0000
  Eu  Eu2       1.0  0.04178  0.72800  0.56261  1.0000
  Re  Re1       1.0  0.63473  0.24710  0.72394  1.0000
  N   N1        1.0  0.52975  0.39214  0.55406  1.0000
  N   N2        1.0  0.33252  0.30362  0.01724  1.0000
  N   N3        1.0  0.68440  0.54612  0.80123  1.0000
  N   N4        1.0  0.91254  0.79682  0.22634  1.0000
  N   N5        1.0  0.49904  0.36177  0.43742  1.0000
  N   N6        1.0  0.14306  0.10739  0.73600  1.0000
  N   N7        1.0  0.47380  0.33873  0.32777  1.0000
  N   N8        1.0  0.95843  0.84269  0.33820  1.0000
  N   N9        1.0  0.86412  0.73517  0.11449  1.0000
  N   N10       1.0  0.30345  0.17207  0.09791  1.0000
