data_image0
_chemical_formula_structural       Eu2TiCN9
_chemical_formula_sum              "Eu2 Ti1 C1 N9"
_cell_length_a       8.90697
_cell_length_b       6.62286
_cell_length_c       5.61373
_cell_angle_alpha    91.3243
_cell_angle_beta     60.492
_cell_angle_gamma    54.4645

_space_group_name_H-M_alt    "P 1"
_space_group_IT_number       1

loop_
  _space_group_symop_operation_xyz
  'x, y, z'

loop_
  _atom_site_type_symbol
  _atom_site_label
  _atom_site_symmetry_multiplicity
  _atom_site_fract_x
  _atom_site_fract_y
  _atom_site_fract_z
  _atom_site_occupancy
  Eu  Eu1       1.0  0.12047  0.53567  0.39756  1.0000
  Eu  Eu2       1.0  0.09611  0.00698  0.96283  1.0000
  Ti  Ti1       1.0  0.72152  0.75621  0.14742  1.0000
  C   C1        1.0  0.49655  0.97902  0.83195  1.0000
  N   N1        1.0  0.61498  0.42190  0.31851  1.0000
  N   N2        1.0  0.50641  0.02743  0.03618  1.0000
  N   N3        1.0  0.93101  0.80769  0.94589  1.0000
  N   N4        1.0  0.92938  0.23919  0.65451  1.0000
  N   N5        1.0  0.98177  0.66591  0.10344  1.0000
  N   N6        1.0  0.48335  0.92875  0.63404  1.0000
  N   N7        1.0  0.91674  0.40072  0.79000  1.0000
  N   N8        1.0  0.95662  0.07678  0.50110  1.0000
  N   N9        1.0  0.44533  0.49025  0.52717  1.0000
