data_image0
_chemical_formula_structural       Ti2N8
_chemical_formula_sum              "Ti2 N8"
_cell_length_a       7.94165
_cell_length_b       3.5438
_cell_length_c       6.57049
_cell_angle_alpha    64.2871
_cell_angle_beta     60.8365
_cell_angle_gamma    100.246

_space_group_name_H-M_alt    "P 1"
_space_group_IT_number       1

loop_
  _space_group_symop_operation_xyz
  'x, y, z'

loop_
  _atom_site_type_symbol
  _atom_site_label
  _atom_site_symmetry_multiplicity
  _atom_site_fract_x
  _atom_site_fract_y
  _atom_site_fract_z
  _atom_site_occupancy
  Ti  Ti1       1.0  0.98094  0.83842  0.47670  1.0000
  Ti  Ti2       1.0  0.35093  0.80530  0.87968  1.0000
  N   N1        1.0  0.19661  0.11398  0.97107  1.0000
  N   N2        1.0  0.05078  0.21126  0.09019  1.0000
  N   N3        1.0  0.32512  0.29448  0.23786  1.0000
  N   N4        1.0  0.51864  0.11941  0.41607  1.0000
  N   N5        1.0  0.42267  0.20605  0.32846  1.0000
  N   N6        1.0  0.94596  0.17396  0.67565  1.0000
  N   N7        1.0  0.75737  0.97792  0.73292  1.0000
  N   N8        1.0  0.66001  0.23064  0.71714  1.0000
