data_image0
_chemical_formula_structural       Eu3Re3N7
_chemical_formula_sum              "Eu3 Re3 N7"
_cell_length_a       4.08201
_cell_length_b       6.5551
_cell_length_c       8.09801
_cell_angle_alpha    77.7581
_cell_angle_beta     110.129
_cell_angle_gamma    76.9252

_space_group_name_H-M_alt    "P 1"
_space_group_IT_number       1

loop_
  _space_group_symop_operation_xyz
  'x, y, z'

loop_
  _atom_site_type_symbol
  _atom_site_label
  _atom_site_symmetry_multiplicity
  _atom_site_fract_x
  _atom_site_fract_y
  _atom_site_fract_z
  _atom_site_occupancy
  Eu  Eu1       1.0  0.17714  0.30291  0.01108  1.0000
  Eu  Eu2       1.0  0.44243  0.32208  0.63165  1.0000
  Eu  Eu3       1.0  0.04021  0.97104  0.37953  1.0000
  Re  Re1       1.0  0.13535  0.80854  0.79588  1.0000
  Re  Re2       1.0  0.51905  0.65085  0.20612  1.0000
  Re  Re3       1.0  0.83729  0.82583  0.02123  1.0000
  N   N1        1.0  0.59871  0.58868  0.97638  1.0000
  N   N2        1.0  0.09585  0.09989  0.70351  1.0000
  N   N3        1.0  0.42083  0.20341  0.35030  1.0000
  N   N4        1.0  0.68186  0.69034  0.44386  1.0000
  N   N5        1.0  0.90475  0.68501  0.61010  1.0000
  N   N6        1.0  0.77431  0.10674  0.03553  1.0000
  N   N7        1.0  0.55857  0.35627  0.30824  1.0000
