# generated using pymatgen
data_Ti(ReN2)3
_symmetry_space_group_name_H-M   'P 1'
_cell_length_a   5.04124212
_cell_length_b   4.99687004
_cell_length_c   5.40157843
_cell_angle_alpha   62.19116592
_cell_angle_beta   62.11764526
_cell_angle_gamma   60.43721390
_symmetry_Int_Tables_number   1
_chemical_formula_structural   Ti(ReN2)3
_chemical_formula_sum   'Ti1 Re3 N6'
_cell_volume   99.57310826
_cell_formula_units_Z   1
loop_
 _symmetry_equiv_pos_site_id
 _symmetry_equiv_pos_as_xyz
  1  'x, y, z'
loop_
 _atom_site_type_symbol
 _atom_site_label
 _atom_site_symmetry_multiplicity
 _atom_site_fract_x
 _atom_site_fract_y
 _atom_site_fract_z
 _atom_site_occupancy
  N  N0  1  0.35861576  0.98657477  0.17425889  1
  N  N1  1  0.99329066  0.33423358  0.52513075  1
  Re  Re2  1  0.01407924  0.97874796  0.92049962  1
  N  N3  1  0.66151762  0.33061293  0.27200961  1
  N  N4  1  0.35922465  0.98747349  0.07815222  1
  Re  Re5  1  0.35558134  0.98344004  0.65610826  1
  Re  Re6  1  0.01450011  0.97899115  0.92225927  1
  Ti  Ti7  1  0.01414569  0.97818863  0.42511535  1
  N  N8  1  0.69626617  0.97967488  0.80867267  1
  N  N9  1  0.35110947  0.68015307  0.65306437  1
