# generated using pymatgen
data_TiN9
_symmetry_space_group_name_H-M   'P 1'
_cell_length_a   4.98787975
_cell_length_b   4.94045734
_cell_length_c   5.45793247
_cell_angle_alpha   62.52895737
_cell_angle_beta   62.71917725
_cell_angle_gamma   61.26926041
_symmetry_Int_Tables_number   1
_chemical_formula_structural   TiN9
_chemical_formula_sum   'Ti1 N9'
_cell_volume   99.68389893
_cell_formula_units_Z   1
loop_
 _symmetry_equiv_pos_site_id
 _symmetry_equiv_pos_as_xyz
  1  'x, y, z'
loop_
 _atom_site_type_symbol
 _atom_site_label
 _atom_site_symmetry_multiplicity
 _atom_site_fract_x
 _atom_site_fract_y
 _atom_site_fract_z
 _atom_site_occupancy
  N  N0  1  0.67919415  0.29465854  0.12484293  1
  N  N1  1  0.32654911  0.60193664  0.32548419  1
  N  N2  1  0.33245289  0.24339733  0.91633099  1
  N  N3  1  0.67691648  0.28971496  0.01262964  1
  N  N4  1  0.67226470  0.94326067  0.52517337  1
  N  N5  1  0.32855347  0.60489070  0.42184767  1
  N  N6  1  0.01031894  0.95558858  0.75618529  1
  N  N7  1  0.00308240  0.59406710  0.22137532  1
  Ti  Ti8  1  0.33658022  0.24954742  0.53353840  1
  N  N9  1  0.67421055  0.94452292  0.63817358  1
