# generated using pymatgen
data_TiReN8
_symmetry_space_group_name_H-M   'P 1'
_cell_length_a   4.99650383
_cell_length_b   4.97235107
_cell_length_c   5.47414398
_cell_angle_alpha   62.57582855
_cell_angle_beta   62.64363861
_cell_angle_gamma   60.90219116
_symmetry_Int_Tables_number   1
_chemical_formula_structural   TiReN8
_chemical_formula_sum   'Ti1 Re1 N8'
_cell_volume   100.50020368
_cell_formula_units_Z   1
loop_
 _symmetry_equiv_pos_site_id
 _symmetry_equiv_pos_as_xyz
  1  'x, y, z'
loop_
 _atom_site_type_symbol
 _atom_site_label
 _atom_site_symmetry_multiplicity
 _atom_site_fract_x
 _atom_site_fract_y
 _atom_site_fract_z
 _atom_site_occupancy
  N  N0  1  0.06581131  0.85475260  0.51599169  1
  Ti  Ti1  1  0.08047334  0.49362552  0.42491534  1
  N  N2  1  0.41622162  0.19032992  0.62174225  1
  N  N3  1  0.75082970  0.41879800  0.82909977  1
  N  N4  1  0.73867434  0.19778495  0.70487380  1
  Re  Re5  1  0.08021539  0.49226516  0.91364682  1
  N  N6  1  0.73008955  0.83168542  0.24402450  1
  N  N7  1  0.42354757  0.54322755  0.10411809  1
  N  N8  1  0.42299113  0.54158670  0.11436539  1
  N  N9  1  0.07134246  0.09618843  0.41087461  1
