# generated using pymatgen
data_ZrBN2
_symmetry_space_group_name_H-M   'P 1'
_cell_length_a   3.52851796
_cell_length_b   3.51389384
_cell_length_c   4.12001371
_cell_angle_alpha   89.53335571
_cell_angle_beta   89.82518768
_cell_angle_gamma   120.13644409
_symmetry_Int_Tables_number   1
_chemical_formula_structural   ZrBN2
_chemical_formula_sum   'Zr1 B1 N2'
_cell_volume   44.17558413
_cell_formula_units_Z   1
loop_
 _symmetry_equiv_pos_site_id
 _symmetry_equiv_pos_as_xyz
  1  'x, y, z'
loop_
 _atom_site_type_symbol
 _atom_site_label
 _atom_site_symmetry_multiplicity
 _atom_site_fract_x
 _atom_site_fract_y
 _atom_site_fract_z
 _atom_site_occupancy
  N  N0  1  0.04901367  0.90053874  0.06702375  1
  Zr  Zr1  1  0.04998642  0.89981818  0.56518430  1
  N  N2  1  0.71656305  0.23476592  0.56752729  1
  B  B3  1  0.38414070  0.56845862  0.06670243  1
